%nprocshared=32
%mem=100GB
# p opt=tight Int=UltraFine pbe1pbe/cc-pvtz

Autojob.

0 1
C          0.00000        0.70760        0.00010
C          0.00000       -0.70760        0.00000
C          1.22500        1.39440        0.00000
C          1.22500       -1.39440        0.00010
C         -1.22500        1.39430        0.00000
C         -1.22500       -1.39430        0.00000
C          2.43270        0.69590       -0.00010
C          2.43270       -0.69580        0.00000
C         -2.43270        0.69580        0.00000
C         -2.43270       -0.69580       -0.00010
H          1.24890        2.48210       -0.00010
H          1.24890       -2.48220        0.00010
H         -1.24900        2.48210        0.00010
H         -1.24890       -2.48220       -0.00010
H          3.37320        1.23910       -0.00010
H          3.37330       -1.23900       -0.00010
H         -3.37320        1.23900        0.00000
H         -3.37330       -1.23900       -0.00010

