%nprocshared=32
%mem=100GB
# p opt=tight Int=UltraFine pbe1pbe/cc-pvtz

Autojob.

0 1
C          0.70850        0.00000        0.00000
C         -0.70850        0.00000        0.00000
C          1.41540        1.22510        0.00000
C         -1.41540        1.22500        0.00000
C          1.41540       -1.22500        0.00000
C         -1.41540       -1.22510        0.00000
C          0.69810        2.42900        0.00000
C         -0.69820        2.42900        0.00000
C          0.69820       -2.42900        0.00000
C         -0.69810       -2.42900        0.00000
C          2.81780        1.20840       -0.00010
C         -2.81780        1.20830        0.00000
C          2.81780       -1.20830        0.00000
C         -2.81780       -1.20840        0.00000
C          3.51260        0.00000        0.00000
C         -3.51260        0.00000        0.00000
H          1.22030        3.38360        0.00000
H         -1.22050        3.38360        0.00000
H          1.22050       -3.38360        0.00000
H         -1.22030       -3.38360        0.00000
H          3.38270        2.13820       -0.00010
H         -3.38290        2.13800        0.00010
H          3.38280       -2.13800        0.00010
H         -3.38270       -2.13820       -0.00010
H          4.59890        0.00010        0.00000
H         -4.59890        0.00000        0.00000

